*Heading
** Job name: Pole-Door_NoInt_t0-01 Model name: No Int Beam
*Preprint, echo=NO, model=NO, history=NO, contact=NO
**
** PARTS
**
*Part, name=Door
*Node
      1,        -950.,         580.,         260.
      2,        -930.,         580.,         260.
      3,        -910.,         580.,         260.
      4,        -890.,         580.,         260.
      5,        -870.,         580.,         260.
      6,        -850.,         580.,         260.
      7,        -830.,         580.,         260.
      8,        -810.,         580.,         260.
      9,        -790.,         580.,         260.
     10,        -770.,         580.,         260.
     11,        -750.,         580.,         260.
     12,        -730.,         580.,         260.
     13,        -710.,         580.,         260.
     14,        -690.,         580.,         260.
     15,        -670.,         580.,         260.
     16,        -650.,         580.,         260.
     17,        -630.,         580.,         260.
     18,        -610.,         580.,         260.
     19,        -590.,         580.,         260.
     20,        -570.,         580.,         260.
** ... 5100 like lines cut
*Element, type=S4R
  1, 104, 107, 108, 103
  2, 103, 108,  47,  48
  3, 107,  44,  45, 108
  4, 108,  45,  46,  47
  5, 105, 109, 107, 104
  6, 109,  43,  44, 107
  7,  39,  40, 110, 106
  8, 106, 110, 109, 105
  9,  40,  41,  42, 110
 10, 110,  42,  43, 109
 11, 100, 111, 113,  99
 12,  99, 113,  50,  51
 13, 111, 112, 114, 113
 14, 113, 114,  49,  50
 15, 112, 104, 103, 114
 16, 114, 103,  48,  49
 17,  36,  37, 115, 102
 18, 102, 115, 116, 101
 19, 101, 116, 111, 100
 20, 106, 117,  38,  39
** ... 4965 like lines cut
*Element, type=S3R
201, 285, 353, 284
202, 354, 281, 282
207, 357, 352, 353
208, 358, 354, 352
452, 585, 261, 262
453, 559, 590, 585
510, 651, 626, 637
527, 667, 644, 651
554, 677, 700, 670
645, 781, 761, 751
1099, 1189, 1218, 1217
1118, 1217, 1243, 1219
1144, 1218, 1245, 1244
1145,  329,  330, 1245
1155, 1219, 1292, 1268
1197, 1271, 1315, 1292
1224, 1316, 1340, 1315
1245,  332,  333, 1319
1544, 1617, 1615, 1616
1548,  251,  252, 1617
** ... 64 like lines cut
*Elset, elset=_PickedSet2, internal
    1,    2,    3,    4,    5,    6,    7,    8,    9,   10,   11,   12,   13,   14,   15,   16
   17,   18,   19,   20,   21,   22,   23,   24,   25,   26,   27,   28,   29,   30,   31,   32
   33,   34,   35,   36,   37,   38,   39,   40,   41,   42,   43,   44,   45,   46,   47,   48
   49,   50,   51,   52,   53,   54,   55,   56,   57,   58,   59,   60,   61,   62,   63,   64
   65,   66,   67,   68,   69,   70,   71,   72,   73,   74,   75,   76,   77,   78,   79,   80
   81,   82,   83,   84,   85,   86,   87,   88,   89,   90,   91,   92,   93,   94,   95,   96
   97,   98,   99,  100,  101,  102,  103,  104,  105,  106,  107,  108,  109,  110,  111,  112
  113,  114,  115,  116,  117,  118,  119,  120,  121,  122,  123,  124,  125,  126,  127,  128
  129,  130,  131,  132,  133,  134,  135,  136,  137,  138,  139,  140,  141,  142,  143,  144
  145,  146,  147,  148,  149,  150,  151,  152,  153,  154,  155,  156,  157,  158,  159,  160
  161,  162,  163,  164,  165,  166,  167,  168,  169,  170,  171,  172,  173,  174,  175,  176
  177,  178,  179,  180,  181,  182,  183,  184,  185,  186,  187,  188,  189,  190,  191,  192
  193,  194,  195,  196,  197,  198,  199,  200,  201,  202,  203,  204,  205,  206,  207,  208
  209,  210,  211,  212,  213,  214,  215,  216,  217,  218,  219,  220,  221,  222,  223,  224
  225,  226,  227,  228,  229,  230,  231,  232,  233,  234,  235,  236,  237,  238,  239,  240
  241,  242,  243,  244,  245,  246,  247,  248,  249,  250,  251,  252,  253,  254,  255,  256
  257,  258,  259,  260,  261,  262,  263,  264,  265,  266,  267,  268,  269,  270,  271,  272
  273,  274,  275,  276,  277,  278,  279,  280,  281,  282,  283,  284,  285,  286,  287,  288
  289,  290,  291,  292,  293,  294,  295,  296,  297,  298,  299,  300,  301,  302,  303,  304
  305,  306,  307,  308,  309,  310,  311,  312,  313,  314,  315,  316,  317,  318,  319,  320
** ... 297 like lines cut
** Region: (ShellSection:Picked), (Controls:EC-1)
*Elset, elset=_PickedSet2, internal
    1,    2,    3,    4,    5,    6,    7,    8,    9,   10,   11,   12,   13,   14,   15,   16
   17,   18,   19,   20,   21,   22,   23,   24,   25,   26,   27,   28,   29,   30,   31,   32
   33,   34,   35,   36,   37,   38,   39,   40,   41,   42,   43,   44,   45,   46,   47,   48
   49,   50,   51,   52,   53,   54,   55,   56,   57,   58,   59,   60,   61,   62,   63,   64
   65,   66,   67,   68,   69,   70,   71,   72,   73,   74,   75,   76,   77,   78,   79,   80
   81,   82,   83,   84,   85,   86,   87,   88,   89,   90,   91,   92,   93,   94,   95,   96
   97,   98,   99,  100,  101,  102,  103,  104,  105,  106,  107,  108,  109,  110,  111,  112
  113,  114,  115,  116,  117,  118,  119,  120,  121,  122,  123,  124,  125,  126,  127,  128
  129,  130,  131,  132,  133,  134,  135,  136,  137,  138,  139,  140,  141,  142,  143,  144
  145,  146,  147,  148,  149,  150,  151,  152,  153,  154,  155,  156,  157,  158,  159,  160
  161,  162,  163,  164,  165,  166,  167,  168,  169,  170,  171,  172,  173,  174,  175,  176
  177,  178,  179,  180,  181,  182,  183,  184,  185,  186,  187,  188,  189,  190,  191,  192
  193,  194,  195,  196,  197,  198,  199,  200,  201,  202,  203,  204,  205,  206,  207,  208
  209,  210,  211,  212,  213,  214,  215,  216,  217,  218,  219,  220,  221,  222,  223,  224
  225,  226,  227,  228,  229,  230,  231,  232,  233,  234,  235,  236,  237,  238,  239,  240
  241,  242,  243,  244,  245,  246,  247,  248,  249,  250,  251,  252,  253,  254,  255,  256
  257,  258,  259,  260,  261,  262,  263,  264,  265,  266,  267,  268,  269,  270,  271,  272
  273,  274,  275,  276,  277,  278,  279,  280,  281,  282,  283,  284,  285,  286,  287,  288
  289,  290,  291,  292,  293,  294,  295,  296,  297,  298,  299,  300,  301,  302,  303,  304
  305,  306,  307,  308,  309,  310,  311,  312,  313,  314,  315,  316,  317,  318,  319,  320
** ... 297 like lines cut
** Section: ShellSection
*Shell Section, elset=_PickedSet2, controls=EC-1, material=Steel
1., 5
*End Part
**  
*Part, name=Pole
*End Part
**  
**
** ASSEMBLY
**
*Assembly, name=Assembly
**  
*Instance, name=Door-1, part=Door
*End Instance
**  
*Instance, name=Pole-1, part=Pole
-555.087449017712, 1159.99999999997, 524.999999999845
-555.087449017712, 1159.99999999997, 524.999999999845, -554.087449017712, 1160.00000014358, 524.999999640815, 89.9999990194288
*Node
      1,   -86.706337,  -49.8197899,        1200.
      2,   -86.706337,  -49.8197899,           0.
      3,   98.4769669,   17.3864117,           0.
      4,   86.6025391,          50.,           0.
      5,   98.4769669,   17.3864117,        1200.
      6,   86.6025391,          50.,        1200.
      7,  -86.7074051,  -49.8179245,   1172.09302
      8,  -86.7076797,  -49.8174515,   1144.18604
      9,  -86.7077408,  -49.8173485,   1116.27905
     10,  -86.7077637,  -49.8173065,   1088.37207
     11,  -86.7077637,  -49.8173065,   1060.46509
     12,  -86.7077637,  -49.8173065,   1032.55811
     13,  -86.7077637,  -49.8173065,   1004.65118
     14,  -86.7077637,  -49.8173065,   976.744202
     15,  -86.7077637,  -49.8173065,   948.837158
     16,  -86.7077637,  -49.8173065,   920.930176
     17,  -86.7077637,  -49.8173065,   893.023315
     18,  -86.7077637,  -49.8173065,   865.116333
     19,  -86.7077637,  -49.8173065,   837.209351
     20,  -86.7077637,  -49.8173065,   809.302307
** ... 948 like lines cut
*Element, type=R3D4
  1,   1,   7, 129, 108
  2,   7,   8, 130, 129
  3,   8,   9, 131, 130
  4,   9,  10, 132, 131
  5,  10,  11, 133, 132
  6,  11,  12, 134, 133
  7,  12,  13, 135, 134
  8,  13,  14, 136, 135
  9,  14,  15, 137, 136
 10,  15,  16, 138, 137
 11,  16,  17, 139, 138
 12,  17,  18, 140, 139
 13,  18,  19, 141, 140
 14,  19,  20, 142, 141
 15,  20,  21, 143, 142
 16,  21,  22, 144, 143
 17,  22,  23, 145, 144
 18,  23,  24, 146, 145
 19,  24,  25, 147, 146
 20,  25,  26, 148, 147
** ... 926 like lines cut
*Node
    969,           0.,  -6.12303177e-15,        1200.
*Nset, nset=Pole-1-RefPt_, internal
969, 
*Nset, nset=_PickedSet3, internal
 969,
*Elset, elset=Pole-1, generate
   1,  946,    1
*Element, type=MASS, elset=_PickedSet3_PointMass_
947, 969
*Mass, elset=_PickedSet3_PointMass_
1., 
*End Instance
**  
*Nset, nset=PoleBC, instance=Pole-1
 969,
*Elset, elset=AUTO1, instance=Door-1
    1,    2,    3,    4,    5,    6,    7,    8,    9,   10,   11,   12,   13,   14,   15,   16
   17,   18,   19,   20,   21,   22,   23,   24,   25,   26,   27,   28,   29,   30,   31,   32
   33,   34,   35,   36,   37,   38,   39,   40,   41,   42,   43,   44,   45,   46,   47,   48
   49,   50,   51,   52,   53,   54,   55,   56,   57,   58,   59,   60,   61,   62,   63,   64
   65,   66,   67,   68,   69,   70,   71,   72,   73,   74,   75,   76,   77,   78,   79,   80
   81,   82,   83,   84,   85,   86,   87,   88,   89,   90,   91,   92,   93,   94,   95,   96
   97,   98,   99,  100,  101,  102,  103,  104,  105,  106,  107,  108,  109,  110,  111,  112
  113,  114,  115,  116,  117,  118,  119,  120,  121,  122,  123,  124,  125,  126,  127,  128
  129,  130,  131,  132,  133,  134,  135,  136,  137,  138,  139,  140,  141,  142,  143,  144
  145,  146,  147,  148,  149,  150,  151,  152,  153,  154,  155,  156,  157,  158,  159,  160
  161,  162,  163,  164,  165,  166,  167,  168,  169,  170,  171,  172,  173,  174,  175,  176
  177,  178,  179,  180,  181,  182,  183,  184,  185,  186,  187,  188,  189,  190,  191,  192
  193,  194,  195,  196,  197,  198,  199,  200,  201,  202,  203,  204,  205,  206,  207,  208
  209,  210,  211,  212,  213,  214,  215,  216,  217,  218,  219,  220,  221,  222,  223,  224
  225,  226,  227,  228,  229,  230,  231,  232,  233,  234,  235,  236,  237,  238,  239,  240
  241,  242,  243,  244,  245,  246,  247,  248,  249,  250,  251,  252,  253,  254,  255,  256
  257,  258,  259,  260,  261,  262,  263,  264,  265,  266,  267,  268,  269,  270,  271,  272
  273,  274,  275,  276,  277,  278,  279,  280,  281,  282,  283,  284,  285,  286,  287,  288
  289,  290,  291,  292,  293,  294,  295,  296,  297,  298,  299,  300,  301,  302,  303,  304
  305,  306,  307,  308,  309,  310,  311,  312,  313,  314,  315,  316,  317,  318,  319,  320
** ... 297 like lines cut
*Nset, nset=_PickedSet11, internal, instance=Door-1, generate
    1,  5120,     1
*Rigid Body, ref node=Pole-1.Pole-1-RefPt_, elset=Pole-1.Pole-1
*End Assembly
** 
** ELEMENT CONTROLS
** 
*Section Controls, name=EC-1, DISTORTION CONTROL=NO, hourglass=STIFFNESS
1., 1., 1.
** 
** MATERIALS
** 
*Material, name=Steel, rtol=0.3
*Density
 7.8e-09,
*Elastic
210000., 0.3
*Plastic
 650.597,          0.
 660.465, 5.62861e-05
 670.352, 0.000107624
 680.472, 0.000153637
 690.608, 0.000208394
 700.193, 0.000254021
 710.179,  0.00030687
  720.11, 0.000360097
 730.302, 0.000414462
 740.837, 0.000478327
 750.226, 0.000532685
 760.189, 0.000596923
 770.451, 0.000663057
 780.018, 0.000724245
 790.102, 0.000794171
 800.405, 0.000869412
 810.007, 0.000946166
  820.04,  0.00104609
 830.307,  0.00114714
  840.18,  0.00126528
** ... 18 like lines cut
** 
** INTERACTION PROPERTIES
** 
*Surface Interaction, name=NoFric
*Friction
0.,
** 
** PREDEFINED FIELDS
** 
** Name: DoorVel   Type: Velocity
*Initial Conditions, type=VELOCITY
_PickedSet11, 1, 0.
_PickedSet11, 2, 0.
_PickedSet11, 3, 16670.
** ----------------------------------------------------------------
** 
** STEP: Step-1
** 
*Step, name=Step-1
*Dynamic, Explicit
, 0.01
*Bulk Viscosity
0.06, 1.2
** 
** BOUNDARY CONDITIONS
** 
** Name: PoleBC Type: Symmetry/Antisymmetry/Encastre
*Boundary
PoleBC, ENCASTRE
** 
** INTERACTIONS
** 
** Interaction: Pole-Door
*Contact, op=NEW
*Contact Inclusions, ALL EXTERIOR
*Contact property assignment
 ,  , NoFric
** 
** OUTPUT REQUESTS
** 
*Restart, write, number interval=1, time marks=NO
** 
** FIELD OUTPUT: F-Output-1
** 
*Output, field, variable=PRESELECT
** 
** HISTORY OUTPUT: H-Output-1
** 
*Output, history, variable=PRESELECT
*End Step
