/batch
! ANSYS input file written by Workbench version 11.0 
/config,noeldb,0     ! force off not writing results to database
*get,_wallstrt,active,,time,wall
! File used for geometry attach: OscillatingPlate.agdb
/com,--- Data in consistent MKS units.
/units,MKS
/nopr
/track,-1
/prep7
! Turn off shape checking because checks already performed inside WB mesher.
! See help system for more information.
SHPP,OFF,,NOWARN
/nolist
etcon,set             ! allow ANSYS to choose best KEYOP's for 180x elements
/com,*********** Nodes for the whole assembly ***********
nblock,3
(1i8,3e20.9e3)
       1    1.387778781E-017    1.000000000E+000    4.000000000E-001
       2    6.000000000E-002    1.000000000E+000    4.000000000E-001
       3    6.000000000E-002    0.000000000E+000    4.000000000E-001
       4    0.000000000E+000    0.000000000E+000    4.000000000E-001
       5    1.387778781E-017    1.000000000E+000    0.000000000E+000
       6    6.000000000E-002    1.000000000E+000    0.000000000E+000
       7    6.000000000E-002    0.000000000E+000    0.000000000E+000
       8    0.000000000E+000    0.000000000E+000    0.000000000E+000
       9    3.000000000E-002    1.000000000E+000    4.000000000E-001
      10    6.938893904E-018    5.000000000E-001    4.000000000E-001
      11    1.040834086E-017    7.500000000E-001    4.000000000E-001
      12    3.469446952E-018    2.500000000E-001    4.000000000E-001
      13    1.214306433E-017    8.750000000E-001    4.000000000E-001
      14    8.673617380E-018    6.250000000E-001    4.000000000E-001
      15    5.204170428E-018    3.750000000E-001    4.000000000E-001
      16    1.734723476E-018    1.250000000E-001    4.000000000E-001
      17    1.301042607E-017    9.375000000E-001    4.000000000E-001
      18    1.127570259E-017    8.125000000E-001    4.000000000E-001
      19    9.540979118E-018    6.875000000E-001    4.000000000E-001
      20    7.806255642E-018    5.625000000E-001    4.000000000E-001
! ... 480 like lines cut
! end of nblock command
/com,*********** Elements for Part 1 ***********
et,1,185
eblock,10
(15i8)
       1       1       1       1       0     105     102       9       9       1       1       1       1
       2       1       1       1       0     224     101      40      40       3       3       3       3
       3       1       1       1       0     223     103      72      72       8       8       8       8
       4       1       1       1       0     106     104      41      41       6       6       6       6
       5       1       1       1       0     101     224      40      40       4       4       4       4
       6       1       1       1       0     104     106      41      41       5       5       5       5
       7       1       1       1       0     102     105       9       9       2       2       2       2
       8       1       1       1       0     103     223      72      72       7       7       7       7
       9       1       1       1       0     334     341     326     326     252     252     252     252
      10       1       1       1       0     214     341     209     209     136     136     136     136
      11       1       1       1       0     341     217     209     209     136     136     136     136
      12       1       1       1       0     335     342     298     298     226     226     226     226
      13       1       1       1       0     220     342     182     182     115     115     115     115
      14       1       1       1       0     342     219     182     182     115     115     115     115
      15       1       1       1       0     216     343     214     214     159     159     159     159
      16       1       1       1       0     339     217     334     334     328     328     328     328
      17       1       1       1       0     335     342     331     331     298     298     298     298
      18       1       1       1       0     222     332     220     220     183     183     183     183
      19       1       1       1       0     337     344     247     247     246     246     246     246
      20       1       1       1       0     204     345     131     131     124     124     124     124
! ... 1755 like lines cut
/com,*********** Send Materials ***********
MP,DENS,1,2550.,	! kg/m
MP,NUXY,1,0.35,
MP,EX,1,2500000.,	! Pa
MP,ALPX,1,0.,	! 1/C
MP,C,1,0.,	! J/kgC
MP,KXX,1,0.,	! W/mC
MP,MURX,1,0.,
MP,RSVX,1,0.,	! Ohmm

! get the diagonal of the bounding box. Needed later for other things
*get,_xmin,node,,mnloc,x
*get,_ymin,node,,mnloc,y
*get,_zmin,node,,mnloc,z
*get,_xmax,node,,mxloc,x
*get,_ymax,node,,mxloc,y
*get,_zmax,node,,mxloc,z
_ASMDIAG=(_xmax-_xmin)*(_xmax-_xmin)+(_ymax-_ymin)*(_ymax-_ymin)+(_zmax-_zmin)*(_zmax-_zmin)
_ASMDIAG=SQRT(_ASMDIAG)
/golist
/com,*********** Fixed Supports ***********
CMBLOCK,FIXEDSU ,NODE,      22
(8i10)
         3         4         7         8        40        72        87        88
        89        90        91        92        93        94        95        96
        97        98        99       100       223       224
cmsel,s,FIXEDSU
d,all,all
nsel,all
nsel,all
/com,*********** Define Pressure Using Surface Effect Elements ***********
et,2,154
eblock,10
(15i8)
    1775       2       2       2       0     308     251     236     236
    1776       2       2       2       0     264     310     308     308
    1777       2       2       2       0     241     314     240     240
    1778       2       2       2       0     240     314     303     303
    1779       2       2       2       0      20     273      10      10
    1780       2       2       2       0     273     269      10      10
    1781       2       2       2       0     241     315     312     312
    1782       2       2       2       0     315     240     307     307
    1783       2       2       2       0      52     302      46      46
    1784       2       2       2       0     236     323     308     308
    1785       2       2       2       0     282     255     238     238
    1786       2       2       2       0     322     238     236     236
    1787       2       2       2       0     267     322     236     236
    1788       2       2       2       0     311     267     251     251
    1789       2       2       2       0     269     270      21      21
    1790       2       2       2       0     272     278     255     255
    1791       2       2       2       0      51     316      43      43
    1792       2       2       2       0     320     282     274     274
    1793       2       2       2       0     321     279     275     275
    1794       2       2       2       0     279     246     242     242
! ... 259 like lines cut
esel,s,type,,2
esel,all

*DIM,_loadvari28,TABLE,3,1,1,TIME
! Time values
_loadvari28(1,0) = 0.499
_loadvari28(2,0) = 0.5
_loadvari28(3,0) = 5.
! Load values
_loadvari28(1,1) = 100.
_loadvari28(2,1) = 0.
_loadvari28(3,1) = 0.
/com,*********** Create FSIFlag for CFX ***********
CMBLOCK,FSIN_1  ,NODE,     332
(8i10)
         1         2         3         4         5         6         7         8
         9        10        11        12        13        14        15        16
        17        18        19        20        21        22        23        24
        25        26        27        28        29        30        31        32
        33        34        35        36        37        38        39        41
        42        43        44        45        46        47        48        49
        50        51        52        53        54        55        56        57
        58        59        60        61        62        63        64        65
        66        67        68        69        70        71        73        74
        75        76        77        78        79        80        81        82
        83        84        85        86        87        88        89        90
        91        92        93        94        95        96        97        98
        99       100       105       106       107       108       109       110
       111       112       113       114       115       116       117       118
       119       120       121       122       123       124       125       126
       127       128       129       130       131       132       133       134
       135       136       137       138       139       140       141       142
       143       144       145       146       147       148       149       150
       151       152       153       154       155       156       157       158
       159       160       161       162       163       164       165       166
! ... 22 like lines cut
SF,FSIN_1,FSIN,1
nsel,all
/com,*********** Set Reference Temperature ***********
tref,22.
/gst,on,on
fini
*get,_numnode,node,0,count
*get,_numelem,elem,0,count
/go
/com,--- Number of total nodes = %_numnode%
/com,--- Number of contact elements = 278
/com,--- Number of spring elements = 0
/com,--- Number of solid elements = 1774
/com,--- Number of total elements = %_numelem%
*get,_wallbsol,active,,time,wall
/com,****************************************************************************
/com,*************************    SOLUTION       ********************************
/com,****************************************************************************
/solu
antype,4                   ! transient analysis
nlgeom,on                  ! Turn on Large Deformation Effects
solc,on,on                 ! Turn on solution control with ability to use contact time prediction
kbc,1                      ! stepped BC's
/com, Avg ratio=    0, totalParts=1, thickParts=1, thickPcent=  1
eqsl,pcg,1e-8,,,,,,1
resc,,none                 ! Do not keep any restart files
cntr,print,1               ! print out contact info and also make no initial contact an error
trnopt,full,,,,,hht        ! HHT time integration method
tintp,0.1	! Numerical Damping
nldiag,cont,iter           ! print out contact info each equilibrium iteration
/com,****************************************************
/com,******************* SOLVE FOR LS 1 ****************
esel,s,type,,2
nsle
sf,all,pres,%_loadvari28%
nsel,all
esel,all
/nopr
/gopr
autots,off                 ! User turned off automatic time stepping
deltim,0.1,0.1,0.1
time,5.
timint,on                  ! Turn on time integration effects
outres,erase
outres,all,none
outres,nsol,all
outres,rsol,all
outres,nload,all
outres,strs,all
outres,epel,all
outres,eppl,all
outres,v,all
outres,a,all
! *********** WB SOLVE COMMAND ***********
/eof
solve
/com,****************************************************
/com,*************** FINISHED SOLVE FOR LS 1 *************
*set,_DS_PROGRESS          ! turn off progress updates to avoid virus scanning bug
*get,_wallasol,active,,time,wall
*get,_PCGITER,active,,solu,cgiter
/post1
xmlo,parm
/xml,parm,xml
/gopr
fini
/gopr
*get,_walldone,active,,time,wall
_preptime=(_wallbsol-_wallstrt)*3600
_solvtime=(_wallasol-_wallbsol)*3600
_posttime=(_walldone-_wallasol)*3600
_totaltim=(_walldone-_wallstrt)*3600
